

Patrimônio:
017.007850


Unidade:
17 - Faculdade de Medicina de Ribeirão Preto


Incorporação:
26/07/2004 - Processo: 


Responsável:
2479130-1 Carlos Alberto Ribeiro de Carvalho 


Material:
14869 - CENTRAL TELEFÔNICA PABX                                                                             


Bem:

Origem:
Sispa               
Situação:
Baixado        


Utilização:
Individual


Localização física 
SCTSPM               - Setor de Patrimônio e Materiais


Complemento:
Rua da Praça do Relógio  ,109     (Administração Central)


 
Bloco: -  Andar: -  - sala                           de trabalho          (local de controle) 


Marca:
FASOR
Modelo:
 
Tipo:
CENTRAL


Doc.:
Sem Documento Fiscal
Num.:

Data:



Garantia:
 


Fornecedor:
TELEMAC TELECOMUNICACOES LTDA


Identif:
 


Assinatura Digital:


